Version 4
SHEET 1 1780 1064
WIRE 480 320 384 320
WIRE 624 320 560 320
WIRE 944 320 880 320
WIRE 1072 320 1024 320
WIRE 1568 384 1440 384
WIRE 1776 384 1568 384
WIRE 1568 416 1568 384
WIRE 1440 432 1440 384
WIRE 240 496 128 496
WIRE 384 496 384 320
WIRE 384 496 320 496
WIRE 480 496 384 496
WIRE 624 512 624 320
WIRE 624 512 544 512
WIRE 768 512 624 512
WIRE 880 512 880 320
WIRE 880 512 848 512
WIRE 944 512 880 512
WIRE 480 528 400 528
WIRE 1072 528 1072 320
WIRE 1072 528 1008 528
WIRE 1152 528 1072 528
WIRE 1264 528 1216 528
WIRE 1312 528 1264 528
WIRE 1440 528 1440 496
WIRE 1440 528 1392 528
WIRE 1472 528 1440 528
WIRE 1568 528 1568 496
WIRE 1568 528 1536 528
WIRE 1616 528 1568 528
WIRE 128 544 128 496
WIRE 944 544 912 544
WIRE 1776 544 1776 384
WIRE 1776 544 1680 544
WIRE 1264 560 1264 528
WIRE 1440 560 1440 528
WIRE 1616 560 1584 560
WIRE 912 576 912 544
WIRE 880 592 880 512
WIRE 880 592 848 592
WIRE 1584 592 1584 560
WIRE 624 608 624 512
WIRE 624 752 624 688
WIRE 400 864 400 528
WIRE 400 864 272 864
WIRE 496 864 400 864
WIRE 624 864 624 816
WIRE 624 864 496 864
WIRE 400 880 400 864
WIRE 272 896 272 864
WIRE 272 992 272 976
WIRE 400 992 400 944
WIRE 400 992 272 992
WIRE 448 992 400 992
WIRE 496 992 496 944
WIRE 496 992 448 992
WIRE 448 1024 448 992
FLAG 16 176 0
FLAG 128 176 0
FLAG 16 96 VDD
FLAG 128 96 VEE
FLAG 128 544 0
FLAG 512 480 VDD
FLAG 512 544 VEE
FLAG 448 1024 0
FLAG 288 176 0
FLAG 288 96 OSC
FLAG 976 560 VEE
FLAG 976 496 VDD
FLAG 768 592 OSC
FLAG 912 576 0
FLAG 1264 640 0
FLAG 1072 608 0
FLAG 1648 512 VDD
FLAG 1648 576 VEE
FLAG 1440 640 0
FLAG 1584 592 0
SYMBOL voltage 16 80 R0
SYMATTR InstName Vdd
SYMATTR Value 15
SYMBOL voltage 128 80 R0
SYMATTR InstName Vee
SYMATTR Value -15
SYMBOL Opamps\\OP27 512 448 R0
SYMATTR InstName U1
SYMBOL res 576 304 R90
WINDOW 0 0 56 VBottom 2
WINDOW 3 32 56 VTop 2
SYMATTR InstName R1
SYMATTR Value 2.2k
SYMBOL res 336 480 R90
WINDOW 0 0 56 VBottom 2
WINDOW 3 32 56 VTop 2
SYMATTR InstName R2
SYMATTR Value 1k
SYMBOL res 608 592 R0
SYMATTR InstName R3
SYMATTR Value 330
SYMBOL cap 608 752 R0
SYMATTR InstName C1
SYMATTR Value 4.7n
SYMBOL res 480 848 R0
SYMATTR InstName R4
SYMATTR Value 330
SYMBOL cap 384 880 R0
SYMATTR InstName C2
SYMATTR Value 4.7n
SYMBOL current 272 976 R180
WINDOW 0 24 80 Left 2
WINDOW 3 24 0 Left 2
WINDOW 123 0 0 Left 0
WINDOW 39 0 0 Left 0
SYMATTR InstName I1
SYMATTR Value PULSE(10n 0 0 1n 1n 5n 10n 10)
SYMBOL voltage 288 80 R0
WINDOW 123 24 124 Left 2
WINDOW 39 0 0 Left 0
SYMATTR InstName V1
SYMATTR Value SINE(0 1 2k 0)
SYMBOL Opamps\\OP27 976 464 R0
SYMATTR InstName U2
SYMBOL res 864 496 R90
WINDOW 0 0 56 VBottom 2
WINDOW 3 32 56 VTop 2
SYMATTR InstName R5
SYMATTR Value 20k
SYMBOL res 864 576 R90
WINDOW 0 0 56 VBottom 2
WINDOW 3 32 56 VTop 2
SYMATTR InstName R6
SYMATTR Value 10k
SYMBOL res 1040 304 R90
WINDOW 0 0 56 VBottom 2
WINDOW 3 32 56 VTop 2
SYMATTR InstName R7
SYMATTR Value 10k
SYMBOL diode 1152 544 R270
WINDOW 0 32 32 VTop 2
WINDOW 3 0 32 VBottom 2
SYMATTR InstName D1
SYMATTR Value 1N914
SYMBOL res 1248 544 R0
SYMATTR InstName R8
SYMATTR Value 10k
SYMBOL res 1056 512 R0
SYMATTR InstName R9
SYMATTR Value 10k
SYMBOL Opamps\\OP27 1648 480 R0
SYMATTR InstName U3
SYMBOL res 1552 400 R0
SYMATTR InstName R10
SYMATTR Value 9k
SYMBOL cap 1536 512 R90
WINDOW 0 0 32 VBottom 2
WINDOW 3 32 32 VTop 2
SYMATTR InstName C3
SYMATTR Value 4.7n
SYMBOL cap 1424 432 R0
SYMATTR InstName C4
SYMATTR Value 4.7n
SYMBOL res 1424 544 R0
SYMATTR InstName R11
SYMATTR Value 30
SYMBOL res 1408 512 R90
WINDOW 0 0 56 VBottom 2
WINDOW 3 32 56 VTop 2
SYMATTR InstName R12
SYMATTR Value 4.4k
TEXT -16 1048 Left 2 !.tran 0 5m 0 10n
