Version 4
SHEET 1 880 680
FLAG 16 176 0
FLAG 128 176 0
FLAG 16 96 VDD
FLAG 128 96 VEE
SYMBOL voltage 16 80 R0
SYMATTR InstName Vdd
SYMATTR Value 15
SYMBOL voltage 128 80 R0
SYMATTR InstName Vee
SYMATTR Value -15
